[root]
type=Root
children=system
eventq_index=0
full_system=false
sim_quantum=0
time_sync_enable=false
time_sync_period=100000000000
time_sync_spin_threshold=100000000

[system]
type=System
children=clk_domain cpu0 cpu1 cpu2 cpu3 dma_cntrl0 dma_cntrl1 dvfs_handler l1_coalescer0 l1_coalescer1 l1_coalescer2 l1_coalescer3 l1_tlb0 l1_tlb1 l1_tlb2 l1_tlb3 l2_coalescer l2_tlb l3_coalescer l3_tlb mem_ctrls piobus redirect_paths0 redirect_paths1 redirect_paths2 ruby scalar_coalescer scalar_tlb sqc_coalescer sqc_tlb sys_port_proxy voltage_domain workload
auto_unlink_shared_backstore=false
cache_line_size=64
eventq_index=0
exit_on_work_items=false
init_param=0
m5ops_base=0
mem_mode=timing
mem_ranges=0:8589934592
memories=system.mem_ctrls.dram system.ruby.phys_mem
mmap_using_noreserve=false
multi_thread=false
num_work_ids=16
readfile=
redirect_paths=system.redirect_paths0 system.redirect_paths1 system.redirect_paths2
shadow_rom_ranges=
shared_backstore=
symbolfile=
thermal_components=
thermal_model=Null
work_begin_ckpt_count=0
work_begin_cpu_id_exit=-1
work_begin_exit_count=0
work_cpus_ckpt_count=0
work_end_ckpt_count=0
work_end_exit_count=0
work_item_id=-1
workload=system.workload
system_port=system.sys_port_proxy.in_ports[0]

[system.clk_domain]
type=SrcClockDomain
clock=1000
domain_id=-1
eventq_index=0
init_perf_level=0
voltage_domain=system.voltage_domain

[system.cpu0]
type=BaseTimingSimpleCPU
children=clk_domain decoder interrupts isa mmu power_state tracer workload
branchPred=Null
checker=Null
clk_domain=system.cpu0.clk_domain
cpu_id=0
decoder=system.cpu0.decoder
do_checkpoint_insts=true
do_statistics_insts=true
eventq_index=0
function_trace=false
function_trace_start=0
interrupts=system.cpu0.interrupts
isa=system.cpu0.isa
max_insts_all_threads=0
max_insts_any_thread=0
mmu=system.cpu0.mmu
numThreads=1
power_gating_on_idle=false
power_model=
power_state=system.cpu0.power_state
progress_interval=0
pwr_gating_latency=300
simpoint_start_insts=
socket_id=0
switched_out=false
syscallRetryLatency=10000
system=system
tracer=system.cpu0.tracer
workload=system.cpu0.workload
dcache_port=system.ruby.cp_cntrl0.sequencer.in_ports[1]
icache_port=system.ruby.cp_cntrl0.sequencer.in_ports[0]

[system.cpu0.clk_domain]
type=SrcClockDomain
children=voltage_domain
clock=500
domain_id=-1
eventq_index=0
init_perf_level=0
voltage_domain=system.cpu0.clk_domain.voltage_domain

[system.cpu0.clk_domain.voltage_domain]
type=VoltageDomain
eventq_index=0
voltage=1.0

[system.cpu0.decoder]
type=X86Decoder
eventq_index=0
isa=system.cpu0.isa

[system.cpu0.interrupts]
type=X86LocalApic
children=clk_domain
clk_domain=system.cpu0.interrupts.clk_domain
eventq_index=0
int_latency=1000
pio_latency=100000
system=system
int_requestor=system.piobus.cpu_side_ports[1]
int_responder=system.piobus.mem_side_ports[3]
pio=system.piobus.mem_side_ports[2]

[system.cpu0.interrupts.clk_domain]
type=DerivedClockDomain
clk_divider=16
clk_domain=system.cpu0.clk_domain
eventq_index=0

[system.cpu0.isa]
type=X86ISA
eventq_index=0
vendor_string=M5 Simulator

[system.cpu0.mmu]
type=X86MMU
children=dtb itb
dtb=system.cpu0.mmu.dtb
eventq_index=0
itb=system.cpu0.mmu.itb

[system.cpu0.mmu.dtb]
type=X86TLB
children=walker
entry_type=data
eventq_index=0
next_level=Null
size=64
system=system
walker=system.cpu0.mmu.dtb.walker

[system.cpu0.mmu.dtb.walker]
type=X86PagetableWalker
children=power_state
clk_domain=system.cpu0.clk_domain
eventq_index=0
num_squash_per_cycle=4
power_model=
power_state=system.cpu0.mmu.dtb.walker.power_state
system=system

[system.cpu0.mmu.dtb.walker.power_state]
type=PowerState
clk_gate_bins=20
clk_gate_max=1000000000000
clk_gate_min=1000
default_state=UNDEFINED
eventq_index=0
leaders=
possible_states=

[system.cpu0.mmu.itb]
type=X86TLB
children=walker
entry_type=instruction
eventq_index=0
next_level=Null
size=64
system=system
walker=system.cpu0.mmu.itb.walker

[system.cpu0.mmu.itb.walker]
type=X86PagetableWalker
children=power_state
clk_domain=system.cpu0.clk_domain
eventq_index=0
num_squash_per_cycle=4
power_model=
power_state=system.cpu0.mmu.itb.walker.power_state
system=system

[system.cpu0.mmu.itb.walker.power_state]
type=PowerState
clk_gate_bins=20
clk_gate_max=1000000000000
clk_gate_min=1000
default_state=UNDEFINED
eventq_index=0
leaders=
possible_states=

[system.cpu0.power_state]
type=PowerState
clk_gate_bins=20
clk_gate_max=1000000000000
clk_gate_min=1000
default_state=UNDEFINED
eventq_index=0
leaders=
possible_states=ON CLK_GATED OFF

[system.cpu0.tracer]
type=ExeTracer
eventq_index=0

[system.cpu0.workload]
type=Process
children=drivers0 drivers1
cmd=bc.gem5 1k_128k.gr
cwd=/home/magna/row
drivers=system.cpu0.workload.drivers0 system.cpu0.workload.drivers1
egid=100
env=LD_LIBRARY_PATH=/opt/rocm/lib:/opt/rocm/hcc/lib:/opt/rocm/hsa/lib:/opt/rocm/hip/lib:/opt/rocm/libhsakmt/lib:/opt/rocm/miopen/lib:/opt/rocm/miopengemm/lib:/opt/rocm/hipblas/lib:/opt/rocm/rocblas/lib:/usr/lib/x86_64-linux-gnu HOME=/root HSA_ENABLE_INTERRUPT=1 HSA_ENABLE_SDMA=0
errout=cerr
euid=100
eventq_index=0
executable=gem5-resources/src/gpu/pannotia/bc/bin/bc.gem5
gid=100
input=cin
kvmInSE=false
maxStackSize=67108864
output=cout
pgid=100
pid=100
ppid=0
release=5.1.0
simpoint=0
system=system
uid=100
useArchPT=false

[system.cpu0.workload.drivers0]
type=GPUComputeDriver
children=device
dGPUPoolID=0
device=system.cpu0.workload.drivers0.device
eventq_index=0
filename=kfd
gfxVersion=gfx801
isdGPU=false
m_type=5

[system.cpu0.workload.drivers0.device]
type=GPUCommandProcessor
children=dispatcher hsapp power_state walker
clk_domain=system.cpu0.clk_domain
dispatcher=system.cpu0.workload.drivers0.device.dispatcher
eventq_index=0
hsapp=system.cpu0.workload.drivers0.device.hsapp
power_model=
power_state=system.cpu0.workload.drivers0.device.power_state
sid=0
ssid=0
system=system
walker=system.cpu0.workload.drivers0.device.walker
dma=system.dma_cntrl1.dma_sequencer.in_ports[0]
pio=system.piobus.mem_side_ports[0]

[system.cpu0.workload.drivers0.device.dispatcher]
type=GPUDispatcher
eventq_index=0
kernel_exit_events=false

[system.cpu0.workload.drivers0.device.hsapp]
type=HSAPacketProcessor
children=power_state walker
clk_domain=system.cpu0.clk_domain
eventq_index=0
numHWQueues=10
pioAddr=8589934592
pktProcessDelay=4400000
power_model=
power_state=system.cpu0.workload.drivers0.device.hsapp.power_state
sid=0
ssid=0
system=system
wakeupDelay=100000000
walker=system.cpu0.workload.drivers0.device.hsapp.walker
dma=system.dma_cntrl0.dma_sequencer.in_ports[0]
pio=system.piobus.mem_side_ports[1]

[system.cpu0.workload.drivers0.device.hsapp.power_state]
type=PowerState
clk_gate_bins=20
clk_gate_max=1000000000000
clk_gate_min=1000
default_state=UNDEFINED
eventq_index=0
leaders=
possible_states=

[system.cpu0.workload.drivers0.device.hsapp.walker]
type=VegaPagetableWalker
children=power_state
clk_domain=system.cpu0.clk_domain
eventq_index=0
power_model=
power_state=system.cpu0.workload.drivers0.device.hsapp.walker.power_state
system=system

[system.cpu0.workload.drivers0.device.hsapp.walker.power_state]
type=PowerState
clk_gate_bins=20
clk_gate_max=1000000000000
clk_gate_min=1000
default_state=UNDEFINED
eventq_index=0
leaders=
possible_states=

[system.cpu0.workload.drivers0.device.power_state]
type=PowerState
clk_gate_bins=20
clk_gate_max=1000000000000
clk_gate_min=1000
default_state=UNDEFINED
eventq_index=0
leaders=
possible_states=

[system.cpu0.workload.drivers0.device.walker]
type=VegaPagetableWalker
children=power_state
clk_domain=system.cpu0.clk_domain
eventq_index=0
power_model=
power_state=system.cpu0.workload.drivers0.device.walker.power_state
system=system

[system.cpu0.workload.drivers0.device.walker.power_state]
type=PowerState
clk_gate_bins=20
clk_gate_max=1000000000000
clk_gate_min=1000
default_state=UNDEFINED
eventq_index=0
leaders=
possible_states=

[system.cpu0.workload.drivers1]
type=GPURenderDriver
eventq_index=0
filename=dri/renderD128

[system.cpu1]
type=BaseTimingSimpleCPU
children=clk_domain decoder interrupts isa mmu power_state tracer
branchPred=Null
checker=Null
clk_domain=system.cpu1.clk_domain
cpu_id=1
decoder=system.cpu1.decoder
do_checkpoint_insts=true
do_statistics_insts=true
eventq_index=0
function_trace=false
function_trace_start=0
interrupts=system.cpu1.interrupts
isa=system.cpu1.isa
max_insts_all_threads=0
max_insts_any_thread=0
mmu=system.cpu1.mmu
numThreads=1
power_gating_on_idle=false
power_model=
power_state=system.cpu1.power_state
progress_interval=0
pwr_gating_latency=300
simpoint_start_insts=
socket_id=0
switched_out=false
syscallRetryLatency=10000
system=system
tracer=system.cpu1.tracer
workload=system.cpu0.workload
dcache_port=system.ruby.cp_cntrl0.sequencer1.in_ports[1]
icache_port=system.ruby.cp_cntrl0.sequencer1.in_ports[0]

[system.cpu1.clk_domain]
type=SrcClockDomain
children=voltage_domain
clock=500
domain_id=-1
eventq_index=0
init_perf_level=0
voltage_domain=system.cpu1.clk_domain.voltage_domain

[system.cpu1.clk_domain.voltage_domain]
type=VoltageDomain
eventq_index=0
voltage=1.0

[system.cpu1.decoder]
type=X86Decoder
eventq_index=0
isa=system.cpu1.isa

[system.cpu1.interrupts]
type=X86LocalApic
children=clk_domain
clk_domain=system.cpu1.interrupts.clk_domain
eventq_index=0
int_latency=1000
pio_latency=100000
system=system
int_requestor=system.piobus.cpu_side_ports[3]
int_responder=system.piobus.mem_side_ports[5]
pio=system.piobus.mem_side_ports[4]

[system.cpu1.interrupts.clk_domain]
type=DerivedClockDomain
clk_divider=16
clk_domain=system.cpu1.clk_domain
eventq_index=0

[system.cpu1.isa]
type=X86ISA
eventq_index=0
vendor_string=M5 Simulator

[system.cpu1.mmu]
type=X86MMU
children=dtb itb
dtb=system.cpu1.mmu.dtb
eventq_index=0
itb=system.cpu1.mmu.itb

[system.cpu1.mmu.dtb]
type=X86TLB
children=walker
entry_type=data
eventq_index=0
next_level=Null
size=64
system=system
walker=system.cpu1.mmu.dtb.walker

[system.cpu1.mmu.dtb.walker]
type=X86PagetableWalker
children=power_state
clk_domain=system.cpu1.clk_domain
eventq_index=0
num_squash_per_cycle=4
power_model=
power_state=system.cpu1.mmu.dtb.walker.power_state
system=system

[system.cpu1.mmu.dtb.walker.power_state]
type=PowerState
clk_gate_bins=20
clk_gate_max=1000000000000
clk_gate_min=1000
default_state=UNDEFINED
eventq_index=0
leaders=
possible_states=

[system.cpu1.mmu.itb]
type=X86TLB
children=walker
entry_type=instruction
eventq_index=0
next_level=Null
size=64
system=system
walker=system.cpu1.mmu.itb.walker

[system.cpu1.mmu.itb.walker]
type=X86PagetableWalker
children=power_state
clk_domain=system.cpu1.clk_domain
eventq_index=0
num_squash_per_cycle=4
power_model=
power_state=system.cpu1.mmu.itb.walker.power_state
system=system

[system.cpu1.mmu.itb.walker.power_state]
type=PowerState
clk_gate_bins=20
clk_gate_max=1000000000000
clk_gate_min=1000
default_state=UNDEFINED
eventq_index=0
leaders=
possible_states=

[system.cpu1.power_state]
type=PowerState
clk_gate_bins=20
clk_gate_max=1000000000000
clk_gate_min=1000
default_state=UNDEFINED
eventq_index=0
leaders=
possible_states=ON CLK_GATED OFF

[system.cpu1.tracer]
type=ExeTracer
eventq_index=0

[system.cpu2]
type=BaseTimingSimpleCPU
children=clk_domain decoder interrupts isa mmu power_state tracer
branchPred=Null
checker=Null
clk_domain=system.cpu2.clk_domain
cpu_id=2
decoder=system.cpu2.decoder
do_checkpoint_insts=true
do_statistics_insts=true
eventq_index=0
function_trace=false
function_trace_start=0
interrupts=system.cpu2.interrupts
isa=system.cpu2.isa
max_insts_all_threads=0
max_insts_any_thread=0
mmu=system.cpu2.mmu
numThreads=1
power_gating_on_idle=false
power_model=
power_state=system.cpu2.power_state
progress_interval=0
pwr_gating_latency=300
simpoint_start_insts=
socket_id=0
switched_out=false
syscallRetryLatency=10000
system=system
tracer=system.cpu2.tracer
workload=system.cpu0.workload
dcache_port=system.ruby.cp_cntrl1.sequencer.in_ports[1]
icache_port=system.ruby.cp_cntrl1.sequencer.in_ports[0]

[system.cpu2.clk_domain]
type=SrcClockDomain
children=voltage_domain
clock=500
domain_id=-1
eventq_index=0
init_perf_level=0
voltage_domain=system.cpu2.clk_domain.voltage_domain

[system.cpu2.clk_domain.voltage_domain]
type=VoltageDomain
eventq_index=0
voltage=1.0

[system.cpu2.decoder]
type=X86Decoder
eventq_index=0
isa=system.cpu2.isa

[system.cpu2.interrupts]
type=X86LocalApic
children=clk_domain
clk_domain=system.cpu2.interrupts.clk_domain
eventq_index=0
int_latency=1000
pio_latency=100000
system=system
int_requestor=system.piobus.cpu_side_ports[5]
int_responder=system.piobus.mem_side_ports[7]
pio=system.piobus.mem_side_ports[6]

[system.cpu2.interrupts.clk_domain]
type=DerivedClockDomain
clk_divider=16
clk_domain=system.cpu2.clk_domain
eventq_index=0

[system.cpu2.isa]
type=X86ISA
eventq_index=0
vendor_string=M5 Simulator

[system.cpu2.mmu]
type=X86MMU
children=dtb itb
dtb=system.cpu2.mmu.dtb
eventq_index=0
itb=system.cpu2.mmu.itb

[system.cpu2.mmu.dtb]
type=X86TLB
children=walker
entry_type=data
eventq_index=0
next_level=Null
size=64
system=system
walker=system.cpu2.mmu.dtb.walker

[system.cpu2.mmu.dtb.walker]
type=X86PagetableWalker
children=power_state
clk_domain=system.cpu2.clk_domain
eventq_index=0
num_squash_per_cycle=4
power_model=
power_state=system.cpu2.mmu.dtb.walker.power_state
system=system

[system.cpu2.mmu.dtb.walker.power_state]
type=PowerState
clk_gate_bins=20
clk_gate_max=1000000000000
clk_gate_min=1000
default_state=UNDEFINED
eventq_index=0
leaders=
possible_states=

[system.cpu2.mmu.itb]
type=X86TLB
children=walker
entry_type=instruction
eventq_index=0
next_level=Null
size=64
system=system
walker=system.cpu2.mmu.itb.walker

[system.cpu2.mmu.itb.walker]
type=X86PagetableWalker
children=power_state
clk_domain=system.cpu2.clk_domain
eventq_index=0
num_squash_per_cycle=4
power_model=
power_state=system.cpu2.mmu.itb.walker.power_state
system=system

[system.cpu2.mmu.itb.walker.power_state]
type=PowerState
clk_gate_bins=20
clk_gate_max=1000000000000
clk_gate_min=1000
default_state=UNDEFINED
eventq_index=0
leaders=
possible_states=

[system.cpu2.power_state]
type=PowerState
clk_gate_bins=20
clk_gate_max=1000000000000
clk_gate_min=1000
default_state=UNDEFINED
eventq_index=0
leaders=
possible_states=ON CLK_GATED OFF

[system.cpu2.tracer]
type=ExeTracer
eventq_index=0

[system.cpu3]
type=Shader
children=CUs0 CUs1 CUs2 CUs3 clk_domain power_state
CUs=system.cpu3.CUs0 system.cpu3.CUs1 system.cpu3.CUs2 system.cpu3.CUs3
clk_domain=system.cpu3.clk_domain
cpu_pointer=system.cpu0
dispatcher=system.cpu0.workload.drivers0.device.dispatcher
eventq_index=0
globalmem=65536
gpu_cmd_proc=system.cpu0.workload.drivers0.device
idlecu_timeout=0
impl_kern_end_rel=false
impl_kern_launch_acq=true
max_valu_insts=0
n_wf=10
power_model=
power_state=system.cpu3.power_state
system_hub=Null
timer_period=10000000
timing=true
translation=false

[system.cpu3.CUs0]
type=ComputeUnit
children=ldsBus localDataStore power_state register_manager scalar_register_file0 scalar_register_file1 scalar_register_file2 scalar_register_file3 vector_register_file0 vector_register_file1 vector_register_file2 vector_register_file3 wavefronts00 wavefronts01 wavefronts02 wavefronts03 wavefronts04 wavefronts05 wavefronts06 wavefronts07 wavefronts08 wavefronts09 wavefronts10 wavefronts11 wavefronts12 wavefronts13 wavefronts14 wavefronts15 wavefronts16 wavefronts17 wavefronts18 wavefronts19 wavefronts20 wavefronts21 wavefronts22 wavefronts23 wavefronts24 wavefronts25 wavefronts26 wavefronts27 wavefronts28 wavefronts29 wavefronts30 wavefronts31 wavefronts32 wavefronts33 wavefronts34 wavefronts35 wavefronts36 wavefronts37 wavefronts38 wavefronts39
clk_domain=system.cpu3.clk_domain
coalescer_to_vrf_bus_width=32
countPages=false
cu_id=0
debugSegFault=false
dpbypass_pipe_length=4
eventq_index=0
execPolicy=OLDEST-FIRST
fetch_depth=2
functionalTLB=false
global_mem_queue_size=256
issue_period=4
localDataStore=system.cpu3.CUs0.localDataStore
localMemBarrier=false
local_mem_queue_size=256
max_cu_tokens=4
max_wave_requests=64
mem_req_latency=50
mem_resp_latency=50
n_wf=10
num_SIMDs=4
num_barrier_slots=4
num_global_mem_pipes=1
num_scalar_cores=1
num_scalar_mem_pipes=1
num_shared_mem_pipes=1
operand_network_length=1
out_of_order_data_delivery=false
perLaneTLB=false
power_model=
power_state=system.cpu3.CUs0.power_state
prefetch_depth=0
prefetch_prev_type=PF_PHASE
prefetch_stride=1
register_manager=system.cpu3.CUs0.register_manager
scalar_mem_queue_size=32
scalar_mem_req_latency=50
scalar_mem_resp_latency=0
scalar_pipe_length=1
scalar_register_file=system.cpu3.CUs0.scalar_register_file0 system.cpu3.CUs0.scalar_register_file1 system.cpu3.CUs0.scalar_register_file2 system.cpu3.CUs0.scalar_register_file3
simd_width=16
spbypass_pipe_length=4
srf_scm_bus_latency=1
system=system
vector_register_file=system.cpu3.CUs0.vector_register_file0 system.cpu3.CUs0.vector_register_file1 system.cpu3.CUs0.vector_register_file2 system.cpu3.CUs0.vector_register_file3
vrf_gm_bus_latency=1
vrf_lm_bus_latency=1
vrf_to_coalescer_bus_width=32
wavefronts=system.cpu3.CUs0.wavefronts00 system.cpu3.CUs0.wavefronts01 system.cpu3.CUs0.wavefronts02 system.cpu3.CUs0.wavefronts03 system.cpu3.CUs0.wavefronts04 system.cpu3.CUs0.wavefronts05 system.cpu3.CUs0.wavefronts06 system.cpu3.CUs0.wavefronts07 system.cpu3.CUs0.wavefronts08 system.cpu3.CUs0.wavefronts09 system.cpu3.CUs0.wavefronts10 system.cpu3.CUs0.wavefronts11 system.cpu3.CUs0.wavefronts12 system.cpu3.CUs0.wavefronts13 system.cpu3.CUs0.wavefronts14 system.cpu3.CUs0.wavefronts15 system.cpu3.CUs0.wavefronts16 system.cpu3.CUs0.wavefronts17 system.cpu3.CUs0.wavefronts18 system.cpu3.CUs0.wavefronts19 system.cpu3.CUs0.wavefronts20 system.cpu3.CUs0.wavefronts21 system.cpu3.CUs0.wavefronts22 system.cpu3.CUs0.wavefronts23 system.cpu3.CUs0.wavefronts24 system.cpu3.CUs0.wavefronts25 system.cpu3.CUs0.wavefronts26 system.cpu3.CUs0.wavefronts27 system.cpu3.CUs0.wavefronts28 system.cpu3.CUs0.wavefronts29 system.cpu3.CUs0.wavefronts30 system.cpu3.CUs0.wavefronts31 system.cpu3.CUs0.wavefronts32 system.cpu3.CUs0.wavefronts33 system.cpu3.CUs0.wavefronts34 system.cpu3.CUs0.wavefronts35 system.cpu3.CUs0.wavefronts36 system.cpu3.CUs0.wavefronts37 system.cpu3.CUs0.wavefronts38 system.cpu3.CUs0.wavefronts39
wf_size=64
gmTokenPort=system.ruby.tcp_cntrl0.coalescer.gmTokenPort
ldsPort=system.cpu3.CUs0.ldsBus.cpu_side_port
memory_port=system.ruby.tcp_cntrl0.coalescer.in_ports[0] system.ruby.tcp_cntrl0.coalescer.in_ports[1] system.ruby.tcp_cntrl0.coalescer.in_ports[2] system.ruby.tcp_cntrl0.coalescer.in_ports[3] system.ruby.tcp_cntrl0.coalescer.in_ports[4] system.ruby.tcp_cntrl0.coalescer.in_ports[5] system.ruby.tcp_cntrl0.coalescer.in_ports[6] system.ruby.tcp_cntrl0.coalescer.in_ports[7] system.ruby.tcp_cntrl0.coalescer.in_ports[8] system.ruby.tcp_cntrl0.coalescer.in_ports[9] system.ruby.tcp_cntrl0.coalescer.in_ports[10] system.ruby.tcp_cntrl0.coalescer.in_ports[11] system.ruby.tcp_cntrl0.coalescer.in_ports[12] system.ruby.tcp_cntrl0.coalescer.in_ports[13] system.ruby.tcp_cntrl0.coalescer.in_ports[14] system.ruby.tcp_cntrl0.coalescer.in_ports[15] system.ruby.tcp_cntrl0.coalescer.in_ports[16] system.ruby.tcp_cntrl0.coalescer.in_ports[17] system.ruby.tcp_cntrl0.coalescer.in_ports[18] system.ruby.tcp_cntrl0.coalescer.in_ports[19] system.ruby.tcp_cntrl0.coalescer.in_ports[20] system.ruby.tcp_cntrl0.coalescer.in_ports[21] system.ruby.tcp_cntrl0.coalescer.in_ports[22] system.ruby.tcp_cntrl0.coalescer.in_ports[23] system.ruby.tcp_cntrl0.coalescer.in_ports[24] system.ruby.tcp_cntrl0.coalescer.in_ports[25] system.ruby.tcp_cntrl0.coalescer.in_ports[26] system.ruby.tcp_cntrl0.coalescer.in_ports[27] system.ruby.tcp_cntrl0.coalescer.in_ports[28] system.ruby.tcp_cntrl0.coalescer.in_ports[29] system.ruby.tcp_cntrl0.coalescer.in_ports[30] system.ruby.tcp_cntrl0.coalescer.in_ports[31] system.ruby.tcp_cntrl0.coalescer.in_ports[32] system.ruby.tcp_cntrl0.coalescer.in_ports[33] system.ruby.tcp_cntrl0.coalescer.in_ports[34] system.ruby.tcp_cntrl0.coalescer.in_ports[35] system.ruby.tcp_cntrl0.coalescer.in_ports[36] system.ruby.tcp_cntrl0.coalescer.in_ports[37] system.ruby.tcp_cntrl0.coalescer.in_ports[38] system.ruby.tcp_cntrl0.coalescer.in_ports[39] system.ruby.tcp_cntrl0.coalescer.in_ports[40] system.ruby.tcp_cntrl0.coalescer.in_ports[41] system.ruby.tcp_cntrl0.coalescer.in_ports[42] system.ruby.tcp_cntrl0.coalescer.in_ports[43] system.ruby.tcp_cntrl0.coalescer.in_ports[44] system.ruby.tcp_cntrl0.coalescer.in_ports[45] system.ruby.tcp_cntrl0.coalescer.in_ports[46] system.ruby.tcp_cntrl0.coalescer.in_ports[47] system.ruby.tcp_cntrl0.coalescer.in_ports[48] system.ruby.tcp_cntrl0.coalescer.in_ports[49] system.ruby.tcp_cntrl0.coalescer.in_ports[50] system.ruby.tcp_cntrl0.coalescer.in_ports[51] system.ruby.tcp_cntrl0.coalescer.in_ports[52] system.ruby.tcp_cntrl0.coalescer.in_ports[53] system.ruby.tcp_cntrl0.coalescer.in_ports[54] system.ruby.tcp_cntrl0.coalescer.in_ports[55] system.ruby.tcp_cntrl0.coalescer.in_ports[56] system.ruby.tcp_cntrl0.coalescer.in_ports[57] system.ruby.tcp_cntrl0.coalescer.in_ports[58] system.ruby.tcp_cntrl0.coalescer.in_ports[59] system.ruby.tcp_cntrl0.coalescer.in_ports[60] system.ruby.tcp_cntrl0.coalescer.in_ports[61] system.ruby.tcp_cntrl0.coalescer.in_ports[62] system.ruby.tcp_cntrl0.coalescer.in_ports[63]
scalar_port=system.ruby.scalar_cntrl0.sequencer.in_ports[0]
scalar_tlb_port=system.scalar_coalescer.cpu_side_ports[0]
sqc_port=system.ruby.sqc_cntrl0.sequencer.in_ports[0]
sqc_tlb_port=system.sqc_coalescer.cpu_side_ports[0]
translation_port=system.l1_coalescer0.cpu_side_ports[0]

[system.cpu3.CUs0.ldsBus]
type=Bridge
children=power_state
clk_domain=system.cpu3.clk_domain
delay=0
eventq_index=0
power_model=
power_state=system.cpu3.CUs0.ldsBus.power_state
ranges=0:18446744073709551615
req_size=16
resp_size=16
cpu_side_port=system.cpu3.CUs0.ldsPort
mem_side_port=system.cpu3.CUs0.localDataStore.cuPort

[system.cpu3.CUs0.ldsBus.power_state]
type=PowerState
clk_gate_bins=20
clk_gate_max=1000000000000
clk_gate_min=1000
default_state=UNDEFINED
eventq_index=0
leaders=
possible_states=

[system.cpu3.CUs0.localDataStore]
type=LdsState
children=power_state
bankConflictPenalty=1
banks=32
clk_domain=system.cpu3.clk_domain
eventq_index=0
power_model=
power_state=system.cpu3.CUs0.localDataStore.power_state
range=0:65536
size=65536
cuPort=system.cpu3.CUs0.ldsBus.mem_side_port

[system.cpu3.CUs0.localDataStore.power_state]
type=PowerState
clk_gate_bins=20
clk_gate_max=1000000000000
clk_gate_min=1000
default_state=UNDEFINED
eventq_index=0
leaders=
possible_states=

[system.cpu3.CUs0.power_state]
type=PowerState
clk_gate_bins=20
clk_gate_max=1000000000000
clk_gate_min=1000
default_state=UNDEFINED
eventq_index=0
leaders=
possible_states=

[system.cpu3.CUs0.register_manager]
type=RegisterManager
children=srf_pool_managers0 srf_pool_managers1 srf_pool_managers2 srf_pool_managers3 vrf_pool_managers0 vrf_pool_managers1 vrf_pool_managers2 vrf_pool_managers3
eventq_index=0
policy=static
srf_pool_managers=system.cpu3.CUs0.register_manager.srf_pool_managers0 system.cpu3.CUs0.register_manager.srf_pool_managers1 system.cpu3.CUs0.register_manager.srf_pool_managers2 system.cpu3.CUs0.register_manager.srf_pool_managers3
vrf_pool_managers=system.cpu3.CUs0.register_manager.vrf_pool_managers0 system.cpu3.CUs0.register_manager.vrf_pool_managers1 system.cpu3.CUs0.register_manager.vrf_pool_managers2 system.cpu3.CUs0.register_manager.vrf_pool_managers3

[system.cpu3.CUs0.register_manager.srf_pool_managers0]
type=DynPoolManager
eventq_index=0
min_alloc=4
pool_size=2048

[system.cpu3.CUs0.register_manager.srf_pool_managers1]
type=DynPoolManager
eventq_index=0
min_alloc=4
pool_size=2048

[system.cpu3.CUs0.register_manager.srf_pool_managers2]
type=DynPoolManager
eventq_index=0
min_alloc=4
pool_size=2048

[system.cpu3.CUs0.register_manager.srf_pool_managers3]
type=DynPoolManager
eventq_index=0
min_alloc=4
pool_size=2048

[system.cpu3.CUs0.register_manager.vrf_pool_managers0]
type=DynPoolManager
eventq_index=0
min_alloc=4
pool_size=2048

[system.cpu3.CUs0.register_manager.vrf_pool_managers1]
type=DynPoolManager
eventq_index=0
min_alloc=4
pool_size=2048

[system.cpu3.CUs0.register_manager.vrf_pool_managers2]
type=DynPoolManager
eventq_index=0
min_alloc=4
pool_size=2048

[system.cpu3.CUs0.register_manager.vrf_pool_managers3]
type=DynPoolManager
eventq_index=0
min_alloc=4
pool_size=2048

[system.cpu3.CUs0.scalar_register_file0]
type=ScalarRegisterFile
eventq_index=0
num_regs=2048
simd_id=0
wf_size=64

[system.cpu3.CUs0.scalar_register_file1]
type=ScalarRegisterFile
eventq_index=0
num_regs=2048
simd_id=1
wf_size=64

[system.cpu3.CUs0.scalar_register_file2]
type=ScalarRegisterFile
eventq_index=0
num_regs=2048
simd_id=2
wf_size=64

[system.cpu3.CUs0.scalar_register_file3]
type=ScalarRegisterFile
eventq_index=0
num_regs=2048
simd_id=3
wf_size=64

[system.cpu3.CUs0.vector_register_file0]
type=VectorRegisterFile
eventq_index=0
num_regs=2048
simd_id=0
wf_size=64

[system.cpu3.CUs0.vector_register_file1]
type=VectorRegisterFile
eventq_index=0
num_regs=2048
simd_id=1
wf_size=64

[system.cpu3.CUs0.vector_register_file2]
type=VectorRegisterFile
eventq_index=0
num_regs=2048
simd_id=2
wf_size=64

[system.cpu3.CUs0.vector_register_file3]
type=VectorRegisterFile
eventq_index=0
num_regs=2048
simd_id=3
wf_size=64

[system.cpu3.CUs0.wavefronts00]
type=Wavefront
eventq_index=0
max_ib_size=13
simdId=0
wf_size=64
wf_slot_id=0

[system.cpu3.CUs0.wavefronts01]
type=Wavefront
eventq_index=0
max_ib_size=13
simdId=0
wf_size=64
wf_slot_id=1

[system.cpu3.CUs0.wavefronts02]
type=Wavefront
eventq_index=0
max_ib_size=13
simdId=0
wf_size=64
wf_slot_id=2

[system.cpu3.CUs0.wavefronts03]
type=Wavefront
eventq_index=0
max_ib_size=13
simdId=0
wf_size=64
wf_slot_id=3

[system.cpu3.CUs0.wavefronts04]
type=Wavefront
eventq_index=0
max_ib_size=13
simdId=0
wf_size=64
wf_slot_id=4

[system.cpu3.CUs0.wavefronts05]
type=Wavefront
eventq_index=0
max_ib_size=13
simdId=0
wf_size=64
wf_slot_id=5

[system.cpu3.CUs0.wavefronts06]
type=Wavefront
eventq_index=0
max_ib_size=13
simdId=0
wf_size=64
wf_slot_id=6

[system.cpu3.CUs0.wavefronts07]
type=Wavefront
eventq_index=0
max_ib_size=13
simdId=0
wf_size=64
wf_slot_id=7

[system.cpu3.CUs0.wavefronts08]
type=Wavefront
eventq_index=0
max_ib_size=13
simdId=0
wf_size=64
wf_slot_id=8

[system.cpu3.CUs0.wavefronts09]
type=Wavefront
eventq_index=0
max_ib_size=13
simdId=0
wf_size=64
wf_slot_id=9

[system.cpu3.CUs0.wavefronts10]
type=Wavefront
eventq_index=0
max_ib_size=13
simdId=1
wf_size=64
wf_slot_id=0

[system.cpu3.CUs0.wavefronts11]
type=Wavefront
eventq_index=0
max_ib_size=13
simdId=1
wf_size=64
wf_slot_id=1

[system.cpu3.CUs0.wavefronts12]
type=Wavefront
eventq_index=0
max_ib_size=13
simdId=1
wf_size=64
wf_slot_id=2

[system.cpu3.CUs0.wavefronts13]
type=Wavefront
eventq_index=0
max_ib_size=13
simdId=1
wf_size=64
wf_slot_id=3

[system.cpu3.CUs0.wavefronts14]
type=Wavefront
eventq_index=0
max_ib_size=13
simdId=1
wf_size=64
wf_slot_id=4

[system.cpu3.CUs0.wavefronts15]
type=Wavefront
eventq_index=0
max_ib_size=13
simdId=1
wf_size=64
wf_slot_id=5

[system.cpu3.CUs0.wavefronts16]
type=Wavefront
eventq_index=0
max_ib_size=13
simdId=1
wf_size=64
wf_slot_id=6

[system.cpu3.CUs0.wavefronts17]
type=Wavefront
eventq_index=0
max_ib_size=13
simdId=1
wf_size=64
wf_slot_id=7

[system.cpu3.CUs0.wavefronts18]
type=Wavefront
eventq_index=0
max_ib_size=13
simdId=1
wf_size=64
wf_slot_id=8

[system.cpu3.CUs0.wavefronts19]
type=Wavefront
eventq_index=0
max_ib_size=13
simdId=1
wf_size=64
wf_slot_id=9

[system.cpu3.CUs0.wavefronts20]
type=Wavefront
eventq_index=0
max_ib_size=13
simdId=2
wf_size=64
wf_slot_id=0

[system.cpu3.CUs0.wavefronts21]
type=Wavefront
eventq_index=0
max_ib_size=13
simdId=2
wf_size=64
wf_slot_id=1

[system.cpu3.CUs0.wavefronts22]
type=Wavefront
eventq_index=0
max_ib_size=13
simdId=2
wf_size=64
wf_slot_id=2

[system.cpu3.CUs0.wavefronts23]
type=Wavefront
eventq_index=0
max_ib_size=13
simdId=2
wf_size=64
wf_slot_id=3

[system.cpu3.CUs0.wavefronts24]
type=Wavefront
eventq_index=0
max_ib_size=13
simdId=2
wf_size=64
wf_slot_id=4

[system.cpu3.CUs0.wavefronts25]
type=Wavefront
eventq_index=0
max_ib_size=13
simdId=2
wf_size=64
wf_slot_id=5

[system.cpu3.CUs0.wavefronts26]
type=Wavefront
eventq_index=0
max_ib_size=13
simdId=2
wf_size=64
wf_slot_id=6

[system.cpu3.CUs0.wavefronts27]
type=Wavefront
eventq_index=0
max_ib_size=13
simdId=2
wf_size=64
wf_slot_id=7

[system.cpu3.CUs0.wavefronts28]
type=Wavefront
eventq_index=0
max_ib_size=13
simdId=2
wf_size=64
wf_slot_id=8

[system.cpu3.CUs0.wavefronts29]
type=Wavefront
eventq_index=0
max_ib_size=13
simdId=2
wf_size=64
wf_slot_id=9

[system.cpu3.CUs0.wavefronts30]
type=Wavefront
eventq_index=0
max_ib_size=13
simdId=3
wf_size=64
wf_slot_id=0

[system.cpu3.CUs0.wavefronts31]
type=Wavefront
eventq_index=0
max_ib_size=13
simdId=3
wf_size=64
wf_slot_id=1

[system.cpu3.CUs0.wavefronts32]
type=Wavefront
eventq_index=0
max_ib_size=13
simdId=3
wf_size=64
wf_slot_id=2

[system.cpu3.CUs0.wavefronts33]
type=Wavefront
eventq_index=0
max_ib_size=13
simdId=3
wf_size=64
wf_slot_id=3

[system.cpu3.CUs0.wavefronts34]
type=Wavefront
eventq_index=0
max_ib_size=13
simdId=3
wf_size=64
wf_slot_id=4

[system.cpu3.CUs0.wavefronts35]
type=Wavefront
eventq_index=0
max_ib_size=13
simdId=3
wf_size=64
wf_slot_id=5

[system.cpu3.CUs0.wavefronts36]
type=Wavefront
eventq_index=0
max_ib_size=13
simdId=3
wf_size=64
wf_slot_id=6

[system.cpu3.CUs0.wavefronts37]
type=Wavefront
eventq_index=0
max_ib_size=13
simdId=3
wf_size=64
wf_slot_id=7

[system.cpu3.CUs0.wavefronts38]
type=Wavefront
eventq_index=0
max_ib_size=13
simdId=3
wf_size=64
wf_slot_id=8

[system.cpu3.CUs0.wavefronts39]
type=Wavefront
eventq_index=0
max_ib_size=13
simdId=3
wf_size=64
wf_slot_id=9

[system.cpu3.CUs1]
type=ComputeUnit